<?xml version="1.0" encoding="UTF-8"?>

<!-- generated on 22.08.2018 14:19:10 by Netedit Version 0.32.0
<?xml version="1.0" encoding="UTF-8"?>

<configuration xmlns:xsi="http://www.w3.org/2001/XMLSchema-instance" xsi:noNamespaceSchemaLocation="http://sumo.dlr.de/xsd/netconvertConfiguration.xsd">

    <input>
        <sumo-net-file value="C:\Users\alexb\Desktop\MS\MatSim2SUMO-master\SUMO\mySUMOnetwork.net.xml"/>
    </input>

    <output>
        <output-file value="C:\Users\alexb\Desktop\MS\MatSim2SUMO-master\SUMO\mySUMOnetwork.net.xml"/>
    </output>

    <processing>
        <no-turnarounds value="true"/>
        <offset.disable-normalization value="true"/>
        <lefthand value="false"/>
        <junctions.corner-detail value="0"/>
        <rectangular-lane-cut value="false"/>
        <walkingareas value="false"/>
    </processing>

</configuration>
-->

<net version="0.27" xmlns:xsi="http://www.w3.org/2001/XMLSchema-instance" xsi:noNamespaceSchemaLocation="http://sumo.dlr.de/xsd/net_file.xsd">

    <location netOffset="-634670.16,-6600958.84" convBoundary="43750.71,52452.83,46552.26,58102.54" origBoundary="634670.16,6600958.84,730570.07,6698200.01" projParameter="!"/>

    <edge id=":-1220105_0" function="internal">
        <lane id=":-1220105_0_0" index="0" speed="14.59" length="14.41" shape="44737.25,57289.99 44733.75,57287.19 44731.83,57283.97 44730.15,57281.28 44727.39,57280.08"/>
    </edge>
    <edge id=":-1220105_1" function="internal">
        <lane id=":-1220105_1_0" index="0" speed="12.50" length="37.04" shape="44737.25,57289.99 44727.28,57283.37 44720.97,57276.16 44716.24,57269.37 44711.03,57264.01"/>
        <lane id=":-1220105_1_1" index="1" speed="12.50" length="37.04" shape="44738.68,57287.01 44728.88,57280.49 44722.72,57273.37 44718.10,57266.64 44712.93,57261.30"/>
    </edge>
    <edge id=":-1220105_3" function="internal">
        <lane id=":-1220105_3_0" index="0" speed="14.59" length="35.42" shape="44740.10,57284.04 44730.42,57277.86 44724.21,57271.22 44719.73,57264.64 44715.22,57258.67"/>
        <lane id=":-1220105_3_1" index="1" speed="14.59" length="35.42" shape="44741.53,57281.06 44732.23,57275.11 44726.34,57268.70 44722.07,57262.31 44717.63,57256.42"/>
    </edge>
    <edge id=":-1220242_0" function="internal">
        <lane id=":-1220242_0_0" index="0" speed="12.50" length="3.41" shape="44665.24,57215.48 44664.51,57214.73 44663.90,57214.32 44663.31,57213.89 44662.65,57213.08"/>
        <lane id=":-1220242_0_1" index="1" speed="12.50" length="3.41" shape="44667.85,57213.46 44667.18,57212.78 44666.60,57212.42 44666.04,57212.04 44665.44,57211.31"/>
    </edge>
    <edge id=":-1220242_2" function="internal">
        <lane id=":-1220242_2_0" index="0" speed="14.59" length="4.80" shape="44661.39,57219.27 44661.34,57217.87 44661.11,57216.93 44660.64,57216.05 44659.87,57214.85"/>
    </edge>
    <edge id=":-1220514_0" function="internal">
        <lane id=":-1220514_0_0" index="0" speed="14.59" length="3.52" shape="44621.92,57148.99 44621.54,57148.02 44621.22,57147.37 44620.81,57146.79 44620.15,57145.98"/>
    </edge>
    <edge id=":-1220514_1" function="internal">
        <lane id=":-1220514_1_0" index="0" speed="12.50" length="4.58" shape="44621.55,57149.13 44621.04,57148.25 44620.87,57147.54 44620.69,57146.84 44620.15,57145.98"/>
        <lane id=":-1220514_1_1" index="1" speed="12.50" length="4.58" shape="44624.76,57147.90 44624.06,57146.75 44623.75,57145.85 44623.42,57144.97 44622.67,57143.86"/>
        <lane id=":-1220514_1_2" index="2" speed="12.50" length="4.58" shape="44627.97,57146.67 44627.07,57145.25 44626.62,57144.17 44626.16,57143.10 44625.20,57141.73"/>
    </edge>
    <edge id=":-1220786_0" function="internal">
        <lane id=":-1220786_0_0" index="0" speed="12.50" length="0.79" shape="43816.67,56351.10 43816.41,56350.86 43816.25,56350.68 43816.10,56350.48 43815.91,56350.18"/>
        <lane id=":-1220786_0_1" index="1" speed="12.50" length="0.79" shape="43818.95,56348.72 43818.86,56348.64 43818.81,56348.58 43818.76,56348.52 43818.70,56348.42"/>
    </edge>
    <edge id=":-1221058_0" function="internal">
        <lane id=":-1221058_0_0" index="0" speed="12.50" length="0.70" shape="43751.91,56218.61 43751.81,56218.32 43751.75,56218.11 43751.71,56217.90 43751.68,56217.59"/>
        <lane id=":-1221058_0_1" index="1" speed="12.50" length="0.70" shape="43755.03,56217.53 43755.00,56217.44 43754.98,56217.37 43754.96,56217.30 43754.95,56217.20"/>
    </edge>
    <edge id=":-1221330_0" function="internal">
        <lane id=":-1221330_0_0" index="0" speed="12.50" length="0.43" shape="43751.68,56119.94 43751.70,56119.75 43751.72,56119.62 43751.75,56119.49 43751.80,56119.31"/>
        <lane id=":-1221330_0_1" index="1" speed="12.50" length="0.43" shape="43754.95,56120.35 43754.96,56120.29 43754.97,56120.25 43754.98,56120.20 43754.99,56120.14"/>
    </edge>
    <edge id=":-1221602_0" function="internal">
        <lane id=":-1221602_0_0" index="0" speed="12.50" length="0.59" shape="43792.23,56014.71 43792.35,56014.48 43792.45,56014.32 43792.55,56014.18 43792.72,56013.97"/>
        <lane id=":-1221602_0_1" index="1" speed="12.50" length="0.59" shape="43795.12,56016.29 43795.16,56016.21 43795.20,56016.16 43795.23,56016.11 43795.28,56016.05"/>
    </edge>
    <edge id=":-1223425_0" function="internal">
        <lane id=":-1223425_0_0" index="0" speed="14.59" length="21.80" shape="44813.35,57190.53 44816.41,57195.64 44819.76,57198.60 44823.43,57201.54 44827.41,57206.61"/>
        <lane id=":-1223425_0_1" index="1" speed="14.59" length="21.80" shape="44810.31,57191.81 44813.39,57196.97 44816.79,57200.02 44820.52,57203.10 44824.58,57208.32"/>
    </edge>
    <edge id=":-1223425_2" function="internal">
        <lane id=":-1223425_2_0" index="0" speed="12.50" length="21.53" shape="44807.23,57193.81 44811.58,57198.12 44814.93,57201.17 44818.07,57204.59 44821.76,57210.03"/>
        <lane id=":-1223425_2_1" index="1" speed="12.50" length="21.53" shape="44804.81,57196.06 44809.12,57200.33 44812.38,57203.26 44815.38,57206.51 44818.94,57211.74"/>
    </edge>
    <edge id=":-1223508_0" function="internal">
        <lane id=":-1223508_0_0" index="0" speed="12.50" length="0.22" shape="44739.34,57136.21 44739.61,57136.39"/>
        <lane id=":-1223508_0_1" index="1" speed="12.50" length="0.22" shape="44737.63,57139.04 44737.72,57139.10"/>
    </edge>
    <edge id=":-1223672_0" function="internal">
        <lane id=":-1223672_0_0" index="0" speed="12.50" length="0.58" shape="44653.87,57084.75 44653.91,57084.79 44653.94,57084.81 44653.97,57084.84 44654.02,57084.87"/>
        <lane id=":-1223672_0_1" index="1" speed="12.50" length="0.58" shape="44651.70,57087.24 44651.83,57087.35 44651.92,57087.43 44652.01,57087.50 44652.16,57087.59"/>
        <lane id=":-1223672_0_2" index="2" speed="12.50" length="0.58" shape="44649.52,57089.72 44649.74,57089.91 44649.90,57090.04 44650.06,57090.15 44650.30,57090.32"/>
    </edge>
    <edge id=":-1223836_0" function="internal">
        <lane id=":-1223836_0_0" index="0" speed="12.50" length="0.51" shape="44435.96,56880.87 44436.16,56880.98 44436.29,56881.05 44436.42,56881.14 44436.61,56881.27"/>
        <lane id=":-1223836_0_1" index="1" speed="12.50" length="0.51" shape="44434.43,56883.80 44434.50,56883.83 44434.54,56883.86 44434.59,56883.89 44434.65,56883.93"/>
    </edge>
    <edge id=":-1224000_0" function="internal">
        <lane id=":-1224000_0_0" index="0" speed="12.50" length="0.53" shape="44345.85,56827.51 44345.91,56827.57 44345.95,56827.60 44345.99,56827.63 44346.06,56827.68"/>
        <lane id=":-1224000_0_1" index="1" speed="12.50" length="0.53" shape="44343.57,56829.90 44343.75,56830.06 44343.87,56830.17 44344.00,56830.27 44344.20,56830.40"/>
    </edge>
    <edge id=":-1224164_0" function="internal">
        <lane id=":-1224164_0_0" index="0" speed="12.50" length="0.75" shape="43832.65,56335.97 43832.71,56336.06 43832.75,56336.12 43832.80,56336.17 43832.88,56336.25"/>
        <lane id=":-1224164_0_1" index="1" speed="12.50" length="0.75" shape="43829.88,56337.76 43830.06,56338.04 43830.20,56338.23 43830.36,56338.40 43830.60,56338.63"/>
    </edge>
    <edge id=":-1224328_0" function="internal">
        <lane id=":-1224328_0_0" index="0" speed="12.50" length="0.75" shape="43772.01,56211.89 43772.02,56212.00 43772.04,56212.08 43772.06,56212.15 43772.09,56212.25"/>
        <lane id=":-1224328_0_1" index="1" speed="12.50" length="0.75" shape="43768.73,56212.24 43768.77,56212.58 43768.81,56212.80 43768.87,56213.02 43768.98,56213.34"/>
    </edge>
    <edge id=":-1224492_0" function="internal">
        <lane id=":-1224492_0_0" index="0" speed="12.50" length="0.44" shape="43773.53,56124.99 43773.51,56125.05 43773.50,56125.10 43773.49,56125.14 43773.48,56125.20"/>
        <lane id=":-1224492_0_1" index="1" speed="12.50" length="0.44" shape="43770.35,56124.11 43770.30,56124.30 43770.26,56124.43 43770.24,56124.56 43770.21,56124.75"/>
    </edge>
    <edge id=":-1224656_0" function="internal">
        <lane id=":-1224656_0_0" index="0" speed="12.50" length="0.80" shape="43811.05,56025.50 43810.97,56025.59 43810.92,56025.66 43810.88,56025.73 43810.83,56025.83"/>
        <lane id=":-1224656_0_1" index="1" speed="12.50" length="0.80" shape="43808.51,56023.39 43808.28,56023.67 43808.14,56023.87 43808.01,56024.08 43807.86,56024.41"/>
    </edge>
    <edge id=":-1224820_0" function="internal">
        <lane id=":-1224820_0_0" index="0" speed="12.50" length="4.10" shape="43891.93,55940.31 43891.41,55939.81 43890.67,55939.82 43889.71,55940.33 43888.53,55941.34"/>
    </edge>
    <edge id=":-1224820_1" function="internal">
        <lane id=":-1224820_1_0" index="0" speed="12.50" length="8.69" shape="43891.93,55940.31 43890.85,55938.09 43890.19,55936.51 43889.38,55935.04 43887.84,55933.15"/>
        <lane id=":-1224820_1_1" index="1" speed="12.50" length="8.69" shape="43894.83,55938.73 43893.63,55936.30 43892.88,55934.59 43891.97,55932.99 43890.28,55930.92"/>
    </edge>
    <edge id=":-1224820_3" function="internal">
        <lane id=":-1224820_3_0" index="0" speed="12.50" length="4.82" shape="43894.83,55938.73 43894.94,55937.24 43895.45,55936.48 43896.37,55936.43 43897.70,55937.10"/>
    </edge>
    <edge id=":-1224820_4" function="internal">
        <lane id=":-1224820_4_0" index="0" speed="12.50" length="10.20" shape="43895.15,55926.47 43897.14,55928.86 43898.24,55930.69 43899.16,55932.66 43900.57,55935.47"/>
        <lane id=":-1224820_4_1" index="1" speed="12.50" length="10.20" shape="43892.71,55928.69 43894.55,55930.93 43895.56,55932.64 43896.39,55934.48 43897.70,55937.10"/>
    </edge>
    <edge id=":-1224820_6" function="internal">
        <lane id=":-1224820_6_0" index="0" speed="12.50" length="12.72" shape="43892.71,55928.69 43893.03,55930.12 43892.05,55932.31 43889.78,55935.26 43886.23,55938.97"/>
    </edge>
    <edge id=":-1224820_7" function="internal">
        <lane id=":-1224820_7_0" index="0" speed="12.50" length="4.82" shape="43892.71,55928.69 43892.94,55930.16 43892.61,55931.02 43891.72,55931.28 43890.28,55930.92"/>
    </edge>
    <edge id=":-1226695_0" function="internal">
        <lane id=":-1226695_0_0" index="0" speed="12.50" length="0.35" shape="44331.62,56843.15 44331.59,56843.11 44331.57,56843.08 44331.54,56843.06 44331.50,56843.02"/>
        <lane id=":-1226695_0_1" index="1" speed="12.50" length="0.35" shape="44334.15,56841.02 44334.04,56840.90 44333.97,56840.82 44333.90,56840.75 44333.78,56840.64"/>
    </edge>
    <edge id=":-1227008_0" function="internal">
        <lane id=":-1227008_0_0" index="0" speed="12.50" length="0.53" shape="44390.90,56922.99 44390.75,56922.81 44390.64,56922.69 44390.55,56922.55 44390.42,56922.35"/>
        <lane id=":-1227008_0_1" index="1" speed="12.50" length="0.53" shape="44393.35,56920.77 44393.29,56920.71 44393.26,56920.67 44393.23,56920.63 44393.19,56920.56"/>
    </edge>
    <edge id=":-1227317_0" function="internal">
        <lane id=":-1227317_0_0" index="0" speed="12.50" length="8.71" shape="44427.75,56968.27 44426.40,56966.20 44426.19,56964.32 44426.02,56962.41 44424.77,56960.23"/>
        <lane id=":-1227317_0_1" index="1" speed="12.50" length="8.71" shape="44430.06,56965.91 44428.74,56963.88 44428.57,56962.03 44428.42,56960.15 44427.21,56958.01"/>
    </edge>
    <edge id=":-1227317_2" function="internal">
        <lane id=":-1227317_2_0" index="0" speed="14.59" length="7.19" shape="44432.36,56963.55 44431.69,56962.54 44431.25,56961.05 44431.05,56959.08 44431.09,56956.65"/>
    </edge>
    <edge id=":-1227625_0" function="internal">
        <lane id=":-1227625_0_0" index="0" speed="16.67" length="1.14" shape="44432.31,56936.00 44432.34,56935.67 44432.40,56935.44 44432.53,56935.24 44432.75,56934.99"/>
    </edge>
    <edge id=":-1227631_0" function="internal">
        <lane id=":-1227631_0_0" index="0" speed="16.67" length="0.94" shape="44444.84,56922.33 44445.03,56922.13 44445.19,56922.02 44445.37,56921.94 44445.64,56921.88"/>
    </edge>
    <edge id=":-1227633_0" function="internal">
        <lane id=":-1227633_0_0" index="0" speed="12.50" length="8.84" shape="44474.43,56909.19 44476.79,56910.24 44478.79,56910.25 44480.71,56910.34 44482.87,56911.63"/>
        <lane id=":-1227633_0_1" index="1" speed="12.50" length="8.84" shape="44472.47,56911.84 44474.74,56912.83 44476.66,56912.78 44478.52,56912.80 44480.59,56914.02"/>
    </edge>
    <edge id=":-1227633_2" function="internal">
        <lane id=":-1227633_2_0" index="0" speed="14.59" length="6.94" shape="44471.62,56915.92 44473.91,56915.52 44475.79,56915.47 44477.26,56915.76 44478.31,56916.40"/>
    </edge>
    <edge id=":-1227816_0" function="internal">
        <lane id=":-1227816_0_0" index="0" speed="16.67" length="0.54" shape="44686.88,57203.07 44686.80,57202.84 44686.75,57202.69 44686.71,57202.52 44686.66,57202.29"/>
        <lane id=":-1227816_0_1" index="1" speed="16.67" length="0.54" shape="44689.97,57201.89 44689.94,57201.82 44689.92,57201.77 44689.91,57201.72 44689.89,57201.64"/>
    </edge>
    <edge id=":-1227818_0" function="internal">
        <lane id=":-1227818_0_0" index="0" speed="16.67" length="1.62" shape="44687.86,57156.67 44688.03,57155.97 44688.21,57155.51 44688.49,57155.09 44688.96,57154.54"/>
        <lane id=":-1227818_0_1" index="1" speed="16.67" length="1.62" shape="44691.08,57157.42 44691.13,57157.19 44691.19,57157.04 44691.28,57156.90 44691.43,57156.72"/>
    </edge>
    <edge id=":-1227820_0" function="internal">
        <lane id=":-1227820_0_0" index="0" speed="16.67" length="1.04" shape="44701.91,57139.82 44702.22,57139.48 44702.45,57139.26 44702.71,57139.07 44703.11,57138.83"/>
        <lane id=":-1227820_0_1" index="1" speed="16.67" length="1.04" shape="44704.39,57142.00 44704.49,57141.89 44704.56,57141.82 44704.65,57141.76 44704.78,57141.68"/>
    </edge>
    <edge id=":-1227822_0" function="internal">
        <lane id=":-1227822_0_0" index="0" speed="16.67" length="0.61" shape="44782.64,57077.96 44782.70,57077.89 44782.74,57077.84 44782.77,57077.79 44782.82,57077.71"/>
        <lane id=":-1227822_0_1" index="1" speed="16.67" length="0.61" shape="44785.12,57080.14 44785.29,57079.93 44785.41,57079.79 44785.51,57079.63 44785.66,57079.40"/>
    </edge>
    <edge id=":-1227824_0" function="internal">
        <lane id=":-1227824_0_0" index="0" speed="16.67" length="1.13" shape="44960.18,56802.70 44960.50,56802.23 44960.73,56801.93 44961.00,56801.65 44961.41,56801.27"/>
        <lane id=":-1227824_0_1" index="1" speed="16.67" length="1.13" shape="44962.90,56804.56 44963.10,56804.28 44963.24,56804.10 44963.40,56803.93 44963.64,56803.70"/>
        <lane id=":-1227824_0_2" index="2" speed="16.67" length="1.13" shape="44965.63,56806.42 44965.69,56806.33 44965.74,56806.27 44965.79,56806.21 44965.87,56806.14"/>
    </edge>
    <edge id=":-1227826_0" function="internal">
        <lane id=":-1227826_0_0" index="0" speed="25.00" length="46.95" shape="44995.59,56769.97 45004.34,56762.55 45013.44,56755.16 45022.03,56747.33 45029.26,56738.59"/>
        <lane id=":-1227826_0_1" index="1" speed="25.00" length="46.95" shape="44997.81,56772.41 45006.65,56764.89 45015.93,56757.29 45024.69,56749.26 45032.00,56740.43"/>
        <lane id=":-1227826_0_2" index="2" speed="25.00" length="46.95" shape="45000.04,56774.84 45008.96,56767.23 45018.41,56759.43 45027.36,56751.19 45034.74,56742.26"/>
    </edge>
    <edge id=":-1227826_3" function="internal">
        <lane id=":-1227826_3_0" index="0" speed="33.33" length="46.87" shape="45002.69,56777.15 45029.26,56738.59"/>
        <lane id=":-1227826_3_1" index="1" speed="33.33" length="46.87" shape="45005.41,56779.02 45032.00,56740.43"/>
        <lane id=":-1227826_3_2" index="2" speed="33.33" length="46.87" shape="45008.13,56780.90 45034.74,56742.26"/>
    </edge>
    <edge id=":-1227901_0" function="internal">
        <lane id=":-1227901_0_0" index="0" speed="25.00" length="44.39" shape="45057.20,56771.60 45051.92,56781.30 45048.07,56791.54 45044.79,56802.07 45041.22,56812.65"/>
        <lane id=":-1227901_0_1" index="1" speed="25.00" length="44.39" shape="45057.20,56771.60 45051.44,56781.12 45046.53,56790.95 45042.18,56801.09 45038.14,56811.48"/>
        <lane id=":-1227901_0_2" index="2" speed="25.00" length="44.39" shape="45057.20,56771.60 45050.96,56780.93 45044.98,56790.37 45039.58,56800.10 45035.05,56810.31"/>
    </edge>
    <edge id=":-1227901_3" function="internal">
        <lane id=":-1227901_3_0" index="0" speed="33.33" length="44.85" shape="45057.20,56771.60 45031.92,56808.68"/>
        <lane id=":-1227901_3_1" index="1" speed="33.33" length="44.85" shape="45054.46,56769.76 45029.20,56806.82"/>
        <lane id=":-1227901_3_2" index="2" speed="33.33" length="44.85" shape="45051.72,56767.92 45026.47,56804.96"/>
    </edge>
    <edge id=":-1227957_0" function="internal">
        <lane id=":-1227957_0_0" index="0" speed="16.67" length="1.08" shape="45025.85,56853.20 45025.66,56853.70 45025.51,56854.03 45025.33,56854.35 45025.03,56854.80"/>
        <lane id=":-1227957_0_1" index="1" speed="16.67" length="1.08" shape="45022.77,56852.03 45022.65,56852.33 45022.56,56852.53 45022.45,56852.72 45022.28,56852.99"/>
        <lane id=":-1227957_0_2" index="2" speed="16.67" length="1.08" shape="45019.68,56850.86 45019.64,56850.96 45019.61,56851.02 45019.58,56851.09 45019.52,56851.17"/>
    </edge>
    <edge id=":-1227968_0" function="internal">
        <lane id=":-1227968_0_0" index="0" speed="16.67" length="0.30" shape="44850.86,57112.63 44850.78,57112.74 44850.73,57112.82 44850.67,57112.89 44850.59,57113.00"/>
        <lane id=":-1227968_0_1" index="1" speed="16.67" length="0.30" shape="44848.11,57110.80 44848.09,57110.83 44848.07,57110.86 44848.05,57110.88 44848.02,57110.92"/>
    </edge>
    <edge id=":-1227988_0" function="internal">
        <lane id=":-1227988_0_0" index="0" speed="16.67" length="1.52" shape="44814.07,57161.09 44813.94,57161.28 44813.87,57161.41 44813.83,57161.56 44813.80,57161.78"/>
        <lane id=":-1227988_0_1" index="1" speed="16.67" length="1.52" shape="44811.35,57159.22 44810.97,57159.78 44810.76,57160.20 44810.63,57160.65 44810.53,57161.32"/>
    </edge>
    <edge id=":-1228027_0" function="internal">
        <lane id=":-1228027_0_0" index="0" speed="25.00" length="16.95" shape="44455.85,57394.41 44460.01,57390.89 44462.73,57387.65 44464.76,57384.59 44466.85,57381.66"/>
    </edge>
    <edge id=":-1228027_1" function="internal">
        <lane id=":-1228027_1_0" index="0" speed="33.33" length="16.89" shape="44455.85,57394.41 44469.29,57384.23"/>
        <lane id=":-1228027_1_1" index="1" speed="33.33" length="16.89" shape="44457.78,57397.09 44471.25,57386.89"/>
        <lane id=":-1228027_1_2" index="2" speed="33.33" length="16.89" shape="44459.70,57399.77 44473.20,57389.55"/>
    </edge>
    <edge id=":-1228083_0" function="internal">
        <lane id=":-1228083_0_0" index="0" speed="16.67" length="0.26" shape="44513.38,57331.82 44513.44,57331.77 44513.48,57331.73 44513.52,57331.70 44513.59,57331.66"/>
    </edge>
    <edge id=":-1228094_0" function="internal">
        <lane id=":-1228094_0_0" index="0" speed="16.67" length="0.76" shape="44652.88,57236.85 44653.07,57236.72 44653.19,57236.61 44653.28,57236.49 44653.39,57236.29"/>
    </edge>
    <edge id=":-1228133_0" function="internal">
        <lane id=":-1228133_0_0" index="0" speed="16.67" length="0.54" shape="44699.02,57285.61 44698.87,57285.67 44698.77,57285.71 44698.68,57285.77 44698.55,57285.87"/>
    </edge>
    <edge id=":-1228153_0" function="internal">
        <lane id=":-1228153_0_0" index="0" speed="16.67" length="0.30" shape="44557.86,57394.31 44557.79,57394.36 44557.74,57394.40 44557.69,57394.43 44557.61,57394.47"/>
    </edge>
    <edge id=":-1228266_0" function="internal">
        <lane id=":-1228266_0_0" index="0" speed="16.67" length="23.28" shape="44897.62,57048.36 44893.29,57053.98 44889.57,57057.53 44886.00,57060.81 44882.14,57065.66"/>
        <lane id=":-1228266_0_1" index="1" speed="16.67" length="23.28" shape="44894.87,57046.54 44890.54,57052.16 44886.82,57055.70 44883.25,57058.98 44879.39,57063.83"/>
    </edge>
    <edge id=":-1228266_2" function="internal">
        <lane id=":-1228266_2_0" index="0" speed="16.67" length="22.99" shape="44892.11,57044.73 44887.52,57050.91 44883.32,57055.44 44879.66,57058.86 44876.70,57061.71"/>
    </edge>
    <edge id=":-1228286_0" function="internal">
        <lane id=":-1228286_0_0" index="0" speed="16.67" length="0.23" shape="44834.88,57106.71 44834.83,57106.76 44834.80,57106.80 44834.77,57106.83 44834.73,57106.89"/>
    </edge>
    <edge id=":-1228288_0" function="internal">
        <lane id=":-1228288_0_0" index="0" speed="16.67" length="0.27" shape="44771.37,57198.72 44771.32,57198.79 44771.29,57198.83 44771.25,57198.87 44771.19,57198.93"/>
    </edge>
    <edge id=":-1228290_0" function="internal">
        <lane id=":-1228290_0_0" index="0" speed="16.67" length="0.10" shape="44729.73,57241.27 44729.68,57241.32"/>
    </edge>
    <edge id=":-1228292_0" function="internal">
        <lane id=":-1228292_0_0" index="0" speed="16.67" length="0.23" shape="44676.47,57291.59 44676.42,57291.64 44676.39,57291.67 44676.35,57291.70 44676.29,57291.74"/>
    </edge>
    <edge id=":-1228298_0" function="internal">
        <lane id=":-1228298_0_0" index="0" speed="16.67" length="0.86" shape="44606.01,57341.14 44605.80,57341.28 44605.64,57341.36 44605.47,57341.40 44605.21,57341.42"/>
    </edge>
    <edge id=":-1228300_0" function="internal">
        <lane id=":-1228300_0_0" index="0" speed="16.67" length="1.31" shape="44590.19,57342.61 44589.85,57342.60 44589.54,57342.53 44589.25,57342.39 44588.98,57342.19"/>
    </edge>
    <edge id=":-1228302_0" function="internal">
        <lane id=":-1228302_0_0" index="0" speed="16.67" length="1.16" shape="44575.42,57329.82 44575.18,57329.58 44575.04,57329.39 44574.96,57329.16 44574.91,57328.82"/>
    </edge>
    <edge id=":-1228304_0" function="internal">
        <lane id=":-1228304_0_0" index="0" speed="16.67" length="0.90" shape="44573.15,57313.80 44573.12,57313.53 44573.13,57313.35 44573.18,57313.17 44573.29,57312.93"/>
    </edge>
    <edge id=":-1228306_0" function="internal">
        <lane id=":-1228306_0_0" index="0" speed="16.67" length="0.43" shape="44580.65,57297.32 44580.71,57297.21 44580.75,57297.13 44580.80,57297.06 44580.88,57296.96"/>
    </edge>
    <edge id=":-1228308_0" function="internal">
        <lane id=":-1228308_0_0" index="0" speed="16.67" length="0.49" shape="44613.78,57258.54 44613.88,57258.42 44613.93,57258.34 44613.98,57258.26 44614.04,57258.12"/>
    </edge>
    <edge id=":-1228310_0" function="internal">
        <lane id=":-1228310_0_0" index="0" speed="16.67" length="0.13" shape="44625.85,57230.47 44625.90,57230.35"/>
    </edge>
    <edge id=":-1228312_0" function="internal">
        <lane id=":-1228312_0_0" index="0" speed="16.67" length="0.26" shape="44631.65,57188.76 44631.65,57188.68 44631.65,57188.63 44631.64,57188.58 44631.63,57188.51"/>
    </edge>
    <edge id=":-1228314_0" function="internal">
        <lane id=":-1228314_0_0" index="0" speed="16.67" length="0.35" shape="44628.19,57165.45 44628.17,57165.34 44628.16,57165.27 44628.14,57165.21 44628.10,57165.11"/>
    </edge>
    <edge id=":-1228324_0" function="internal">
        <lane id=":-1228324_0_0" index="0" speed="16.67" length="0.50" shape="44631.27,57214.20 44631.32,57214.06 44631.34,57213.96 44631.35,57213.86 44631.36,57213.71"/>
    </edge>
    <edge id=":-1228339_0" function="internal">
        <lane id=":-1228339_0_0" index="0" speed="16.67" length="0.56" shape="44746.72,57113.25 44746.80,57113.21 44746.84,57113.18 44746.89,57113.14 44746.95,57113.09"/>
        <lane id=":-1228339_0_1" index="1" speed="16.67" length="0.56" shape="44748.39,57116.09 44748.61,57115.97 44748.76,57115.87 44748.89,57115.77 44749.09,57115.60"/>
    </edge>
    <edge id=":-1228384_0" function="internal">
        <lane id=":-1228384_0_0" index="0" speed="16.67" length="1.77" shape="44810.73,57183.75 44810.70,57184.00 44810.70,57184.18 44810.75,57184.35 44810.84,57184.59"/>
        <lane id=":-1228384_0_1" index="1" speed="16.67" length="1.77" shape="44807.46,57183.29 44807.37,57184.07 44807.38,57184.61 44807.51,57185.14 44807.80,57185.87"/>
    </edge>
    <edge id=":-1228412_0" function="internal">
        <lane id=":-1228412_0_0" index="0" speed="16.67" length="0.76" shape="44699.77,57236.44 44699.58,57236.15 44699.46,57235.95 44699.36,57235.74 44699.24,57235.42"/>
        <lane id=":-1228412_0_1" index="1" speed="16.67" length="0.76" shape="44702.49,57234.58 44702.43,57234.48 44702.39,57234.42 44702.36,57234.35 44702.32,57234.24"/>
    </edge>
    <edge id=":-1233641_0" function="internal">
        <lane id=":-1233641_0_0" index="0" speed="16.67" length="1.39" shape="44682.53,57181.69 44682.42,57181.08 44682.39,57180.66 44682.43,57180.23 44682.56,57179.63"/>
        <lane id=":-1233641_0_1" index="1" speed="16.67" length="1.39" shape="44685.77,57181.04 44685.73,57180.84 44685.72,57180.71 44685.74,57180.57 44685.78,57180.37"/>
    </edge>
    <edge id=":-1235022_0" function="internal">
        <lane id=":-1235022_0_0" index="0" speed="16.67" length="0.57" shape="44717.31,57279.71 44717.14,57279.71 44717.03,57279.71 44716.91,57279.74 44716.75,57279.79"/>
    </edge>
    <edge id=":-1235269_0" function="internal">
        <lane id=":-1235269_0_0" index="0" speed="16.67" length="0.78" shape="44661.16,57222.09 44661.26,57221.89 44661.32,57221.74 44661.35,57221.58 44661.35,57221.35"/>
    </edge>
    <edge id=":-1235482_0" function="internal">
        <lane id=":-1235482_0_0" index="0" speed="14.59" length="9.03" shape="44687.80,57107.95 44690.08,57109.21 44691.86,57109.57 44693.78,57109.52 44696.48,57109.55"/>
    </edge>
    <edge id=":-1235482_1" function="internal">
        <lane id=":-1235482_1_0" index="0" speed="12.50" length="10.37" shape="44685.94,57110.68 44688.54,57111.96 44690.60,57112.19 44692.74,57112.27 44695.59,57113.11"/>
        <lane id=":-1235482_1_1" index="1" speed="12.50" length="10.37" shape="44684.08,57113.40 44686.83,57114.78 44688.99,57115.08 44691.24,57115.22 44694.25,57116.12"/>
    </edge>
    <edge id=":-1235942_0" function="internal">
        <lane id=":-1235942_0_0" index="0" speed="12.50" length="0.41" shape="44715.86,57122.11 44716.03,57122.18 44716.14,57122.24 44716.25,57122.30 44716.40,57122.39"/>
        <lane id=":-1235942_0_1" index="1" speed="12.50" length="0.41" shape="44714.52,57125.12 44714.58,57125.15 44714.61,57125.17 44714.65,57125.18 44714.70,57125.22"/>
    </edge>
    <edge id=":-1236441_0" function="internal">
        <lane id=":-1236441_0_0" index="0" speed="12.50" length="0.37" shape="44764.90,57154.03 44765.04,57154.13 44765.13,57154.20 44765.22,57154.27 44765.34,57154.38"/>
        <lane id=":-1236441_0_1" index="1" speed="12.50" length="0.37" shape="44763.02,57156.74 44763.06,57156.77 44763.09,57156.79 44763.12,57156.82 44763.16,57156.85"/>
    </edge>
    <edge id=":-1893915_0" function="internal">
        <lane id=":-1893915_0_0" index="0" speed="12.50" length="0.84" shape="44625.79,57154.72 44625.75,57154.65 44625.72,57154.60 44625.69,57154.55 44625.64,57154.49"/>
        <lane id=":-1893915_0_1" index="1" speed="12.50" length="0.84" shape="44628.71,57153.19 44628.60,57152.97 44628.51,57152.82 44628.41,57152.68 44628.26,57152.48"/>
        <lane id=":-1893915_0_2" index="2" speed="12.50" length="0.84" shape="44631.64,57151.67 44631.44,57151.30 44631.30,57151.05 44631.14,57150.81 44630.88,57150.48"/>
    </edge>
    <edge id=":-1894983_0" function="internal">
        <lane id=":-1894983_0_0" index="0" speed="12.50" length="0.42" shape="44645.01,57191.47 44644.66,57190.87"/>
        <lane id=":-1894983_0_1" index="1" speed="12.50" length="0.42" shape="44647.79,57189.70 44647.58,57189.34"/>
        <lane id=":-1894983_0_2" index="2" speed="12.50" length="0.42" shape="44650.58,57187.93 44650.51,57187.82"/>
    </edge>
    <edge id=":-1896612_0" function="internal">
        <lane id=":-1896612_0_0" index="0" speed="12.50" length="0.43" shape="44682.14,57237.31 44682.00,57237.18 44681.91,57237.08 44681.83,57236.98 44681.71,57236.83"/>
        <lane id=":-1896612_0_1" index="1" speed="12.50" length="0.43" shape="44684.47,57234.97 44684.42,57234.92 44684.39,57234.89 44684.36,57234.86 44684.33,57234.81"/>
    </edge>
    <edge id=":-1897711_0" function="internal">
        <lane id=":-1897711_0_0" index="0" speed="12.50" length="0.55" shape="44704.54,57259.45 44704.34,57259.31 44704.21,57259.20 44704.08,57259.09 44703.91,57258.92"/>
        <lane id=":-1897711_0_1" index="1" speed="12.50" length="0.55" shape="44706.44,57256.75 44706.37,57256.70 44706.33,57256.67 44706.29,57256.63 44706.23,57256.57"/>
    </edge>
    <edge id=":-1898734_0" function="internal">